LAMMPS (3 Mar 2020)
# ***************** Initialization # basis  ***************

echo	both

units		metal
dimension	3
boundary	p   p   p
atom_style	full
atom_modify	map	hash

# ****************** read data  *****************

read_restart	npt2.restart.2000000
  restoring atom style full from restart
  orthogonal box = (2.12417 2.84297 3.3889) to (50.198 50.9168 49.4168)
  restoring pair style buck/coul/long from restart
  restoring bond style harmonic from restart
  restoring angle style harmonic from restart
  restoring improper style harmonic from restart
  8973 atoms
  5420 bonds
  5458 angles
  1780 impropers
  read_restart CPU = 0.166152 secs

mass	1	6.940000	# Li
mass	2	14.006700	# n3
mass	3	15.999400	# o
mass	4	28.086000 	# si
mass	5	15.999400 	# oz

# *******************  Define a few parameters  **********************

variable    T	equal  773			# melt temperature
variable    T2	equal  373			# cool temperature
variable    T3	equal  573			# cool temperature
variable	Pre	equal	1			# Pressure
variable	DT	equal  0.0005			# timestep    1fs   (Read from the restart file)
variable	T_low	equal  950			# Heat sink
variable	T_high	equal  1050			# Heat source

# *********************  Potential  function setting  *****************

pair_style	buck/coul/long	15.0

pair_coeff	1	1	49.9328		0.342	0.4567
pair_coeff	1	2	270.2317	0.2984	2.2677
pair_coeff	1	3	367.2162	0.2815	2.269
pair_coeff	1	4	396.5310	0.3464	16.9145
pair_coeff	1	5	181.4382	0.3627	3.5001
pair_coeff	2	2	1462.4691	0.2646	11.2599
pair_coeff	2	3	1987.34		0.2513	11.2664
pair_coeff	2	4	2145.9890	0.3017	83.9870
pair_coeff	2	5	981.9270	0.3140	17.3791
pair_coeff	3	3	2700.5838	0.2392	11.2729
pair_coeff	3	4	2916.1710	0.2845	84.0355
pair_coeff	3	5	1334.3345	0.2954	17.3891
pair_coeff	4	4	3148.9684	0.351	626.4545
pair_coeff	4	5	1440.8542	0.3677	129.6298
pair_coeff	5	5	659.2828	0.386	26.8238

kspace_style	pppm	5e-5

bond_style	harmonic
bond_coeff	1	22.80523256	1.2627	#N-O
bond_coeff	2	12.3854274	1.68	#Si-O

angle_style	harmonic
angle_coeff	1	4.561046512	120.0	#O-N-O
angle_coeff	2	4.345764	109.5	#O-Si-O
angle_coeff	3	4.345764	149		#Si-O-Si

improper_style	harmonic
improper_coeff	1	2.606312292	0.0	#O-N-O-O

# *********************  thermo output  ************************

#thermo		1000
#thermo_style	custom	step	temp	lx	ly	lz	vol	pe	ke	etotal

# *********************** Initialization relaxation ***********************
# ***********************   Optimize at  0 K  ***********************
# ***********************  Static equilibrium  **************************

#dump		1	all	custom	1000	dump.mini	id	type	x	y	z
#dump_modify	1	sort	id

#min_style	cg
#minimize	1.0e-5	1.0e-8	1000000	1000000
#undump		1

#  *************************  Set velocity  **********************

reset_timestep	0

fix		npt	all	npt	temp	773	773	0.1	iso	1	1	0.5
  fix style: npt, fix ID: npt

dump		npt	all	custom	500000	npt.dump	id	type	x	y	z
dump_modify	npt	sort	id

thermo_style 	custom	step	temp	lx	ly	lz	vol	press	pe	ke	etotal
thermo		5000

timestep	0.0005

restart	1000000    npt2.restart

run		2000000
PPPM initialization ...
  G vector (1/distance) = 0.186967
  grid = 20 20 20
  stencil order = 5
  estimated absolute RMS force accuracy = 0.000756246
  estimated relative force accuracy = 5.25184e-05
  3d grid and FFT values/proc = 1950 400
All restart file global fix info was re-assigned
  update every 1 steps, delay 10 steps, check yes
Step Temp Lx Ly Lz Volume Press PotEng KinEng TotEng
0    779.38728    48.073858    48.073858    46.027898    106374.88    857.78262    -3075.274     903.8726   -2171.4014
Averages over the last 201 of 401 rows, steps 1000000 to 2000000:
Temp Lx Ly Lz Volume Press PotEng KinEng TotEng
773.666 48.0502 48.0502 46.0052 106218 -68.5386 -3071.63 897.238 -2174.4
Loop time of 29112.4 on 24 procs for 2000000 steps with 8973 atoms

undump		npt
unfix		npt

# ****************  Now optimize at target TEMP2  ********************
# ****************  rdf  ********************

fix		1	all	npt	temp	373	373	0.1	iso	1	1	0.5

dump		1	all	custom	500000	coldoptimize.dump	id	type	x	y	z
dump_modify	1	sort	id

thermo_style 	custom	step	temp	lx	ly	lz	vol	press	pe	ke	etotal
thermo		5000

restart	1000000    coldoptimize.restart

run		2000000
PPPM initialization ...
  G vector (1/distance) = 0.186974
  grid = 20 20 20
  stencil order = 5
  estimated absolute RMS force accuracy = 0.000755965
  estimated relative force accuracy = 5.24988e-05
  3d grid and FFT values/proc = 1950 400
Step Temp Lx Ly Lz Volume Press PotEng KinEng TotEng
2000000    780.10784    48.067936    48.067936    46.022228    106335.58    1355.3867   -3060.7209    904.70824   -2156.0127
Averages over the last 201 of 401 rows, steps 3000000 to 4000000:
Temp Lx Ly Lz Volume Press PotEng KinEng TotEng
372.875 45.9271 45.9271 43.9725 92751.4 55.9858 -3794.85 432.431 -3362.42
Loop time of 32487.7 on 24 procs for 2000000 steps with 8973 atoms

undump		1
unfix		1

fix	2	all npt	temp	373	373	0.1	iso	1	1	0.5

compute	1	all	rdf	250	1	1	1	2	2	2	4	1	4	2
fix	rdf	all	ave/time	100	10000	1000000	c_1[*]	file grcold.txt	mode	vector

run		1000000
PPPM initialization ...
  G vector (1/distance) = 0.189409
  grid = 20 20 20
  stencil order = 5
  estimated absolute RMS force accuracy = 0.000658507
  estimated relative force accuracy = 4.57308e-05
  3d grid and FFT values/proc = 1950 400
  update every 1 steps, delay 10 steps, check yes
Step Temp Lx Ly Lz Volume Press PotEng KinEng TotEng
4000000    372.77716    45.917013    45.917013    43.962845    92690.034    113.67182   -3799.1396    432.31789   -3366.8217
Averages over the last 101 of 201 rows, steps 4500000 to 5000000:
Temp Lx Ly Lz Volume Press PotEng KinEng TotEng
373.215 45.8765 45.8765 43.9241 92445.2 -48.9056 -3803.42 432.826 -3370.59
Loop time of 16368.5 on 24 procs for 1000000 steps with 8973 atoms

unfix	2

write_restart	cold.restart
PPPM initialization ...
  G vector (1/distance) = 0.189481
  grid = 20 20 20
  stencil order = 5
  estimated absolute RMS force accuracy = 0.000655787
  estimated relative force accuracy = 4.55419e-05
  3d grid and FFT values/proc = 1950 400

write_data	cold.data	nocoeff
PPPM initialization ...
  G vector (1/distance) = 0.189481
  grid = 20 20 20
  stencil order = 5
  estimated absolute RMS force accuracy = 0.000655787
  estimated relative force accuracy = 4.55419e-05
  3d grid and FFT values/proc = 1950 400

# ****************  Now optimize at target TEMP3  ********************
# ****************  edf  ********************

fix	3	all npt	temp	573	573	0.1	iso	1	1	0.5

dump		1	all	custom	500000	hotoptimize.dump	id	type	x	y	z
dump_modify	1	sort	id

thermo_style 	custom	step	temp	lx	ly	lz	vol	press	pe	ke	etotal
thermo		5000

restart	1000000    hotoptimize.restart

run		2000000
PPPM initialization ...
  G vector (1/distance) = 0.189481
  grid = 20 20 20
  stencil order = 5
  estimated absolute RMS force accuracy = 0.000655787
  estimated relative force accuracy = 4.55419e-05
  3d grid and FFT values/proc = 1950 400
Step Temp Lx Ly Lz Volume Press PotEng KinEng TotEng
5000000    369.58139    45.853961    45.853961    43.902477    92308.723     521.5468   -3798.9898    428.61168   -3370.3781
Averages over the last 201 of 401 rows, steps 6000000 to 7000000:
Temp Lx Ly Lz Volume Press PotEng KinEng TotEng
572.693 46.9389 46.9389 44.9412 99017.5 8.1491 -3428.67 664.164 -2764.5
Loop time of 43846.2 on 24 procs for 2000000 steps with 8973 atoms

undump		1
unfix		3

fix	4	all npt	temp	573	573	0.1	iso	1	1	0.5

compute	2	all	rdf	250	1	1	1	2	2	2	4	1	4	2
fix	rdf	all	ave/time	100	10000	1000000	c_2[*]	file grhot.txt	mode	vector

run		1000000
PPPM initialization ...
  G vector (1/distance) = 0.188159
  grid = 20 20 20
  stencil order = 5
  estimated absolute RMS force accuracy = 0.000707057
  estimated relative force accuracy = 4.91024e-05
  3d grid and FFT values/proc = 1950 400
  update every 1 steps, delay 10 steps, check yes
Step Temp Lx Ly Lz Volume Press PotEng KinEng TotEng
7000000    573.04544    47.013762    47.013762    45.012918    99491.775    755.37462   -3430.5874    664.57341    -2766.014
Averages over the last 101 of 201 rows, steps 7500000 to 8000000:
Temp Lx Ly Lz Volume Press PotEng KinEng TotEng
573.038 46.9295 46.9295 44.9323 98958.5 -66.5408 -3429.48 664.564 -2764.92
Loop time of 15447.7 on 24 procs for 1000000 steps with 8973 atoms

unfix	4

write_restart	hot.restart
PPPM initialization ...
  G vector (1/distance) = 0.188207
  grid = 20 20 20
  stencil order = 5
  estimated absolute RMS force accuracy = 0.000705107
  estimated relative force accuracy = 4.8967e-05
  3d grid and FFT values/proc = 1950 400

write_data	hot.data	nocoeff
PPPM initialization ...
  G vector (1/distance) = 0.188207
  grid = 20 20 20
  stencil order = 5
  estimated absolute RMS force accuracy = 0.000705107
  estimated relative force accuracy = 4.8967e-05
  3d grid and FFT values/proc = 1950 400
