LAMMPS (3 Mar 2020)
# ********************  Lammps script  ********************

# ********************  This manual script started at 2021-9-9-20:50:22  ********************

# ********************  PW20 Thermal Conductivity  ********************

echo            both

# ********************  Initialization  *******************

units           metal
dimension       3
boundary        p       p       p
atom_style      full
atom_modify     map     hash

# ********************  Read Data  *******************

read_data	SiC_intf.data
  orthogonal box = (-0.887931 -0.871302 0.778311) to (221.808 24.1316 23.4349)
  reading atoms ...
  8200 atoms
  scanning bonds ...
  scanning angles ...
  scanning dihedrals ...
  reading bonds ...
  3220 bonds
  reading angles ...
  3080 angles
  reading dihedrals ...
  2940 dihedrals

# ********************  Potential  *******************

pair_style	hybrid	tersoff	lj/cut	15.0

pair_coeff	*	*	tersoff		SiC.tersoff	C	Si	NULL	NULL
Reading potential file SiC.tersoff with DATE: 2011-04-26

pair_coeff	1	3	lj/cut		0.006387949	3.6705
pair_coeff	1	4	lj/cut		0.004239138	3.6805
pair_coeff	2	3	lj/cut		0.012499041	3.8682
pair_coeff	2	4	lj/cut		0.008294560	3.8782
pair_coeff	3	3	lj/cut		0.008962026	3.91
pair_coeff	4	4	lj/cut		0.003946739	3.93
pair_coeff	3	4	lj/cut		0.005947334	3.92

bond_style	harmonic
bond_coeff	1	4.157863173	1.54

angle_style	harmonic
angle_coeff	1	2.692916563	114.0

dihedral_style	opls
dihedral_coeff	1	0.061189958	-0.011752319	0.136381359	0		#if branched hydrocarbon, should be reformed

# ********************  Variable  *******************

variable	T	equal	310
variable	P	equal	1
variable	Dt	equal	0.0005		#timestep
variable	T_low	equal	270		# Heat sink
variable	T_high	equal	350		# Heat source
variable	hot_random	equal	354579
variable	cold_random	equal	712359
variable	damp	equal	0.1

# ********************  interface_region  *******************

region	C1_1L	block	46.3	47.8	INF	INF	INF	INF	units	box
region	C1_2L	block	44.0	47.8	INF	INF	INF	INF	units	box
region	Pw_C1	block	47.8	50.5	INF	INF	INF	INF	units	box

region	Si_1L	block	110.4	111.9	INF	INF	INF	INF	units	box
region	Si_2L	block	110.4	114.1	INF	INF	INF	INF	units	box
region	Pw_Si	block	107.0	110.4	INF	INF	INF	INF	units	box

group	C1_1L	region	C1_1L
55 atoms in group C1_1L
group	C1_2L	region	C1_2L
165 atoms in group C1_2L
group	Pw_C1	region	Pw_C1
70 atoms in group Pw_C1

group	Si_1L	region	Si_1L
55 atoms in group Si_1L
group	Si_2L	region	Si_2L
165 atoms in group Si_2L
group	Pw_Si	region	Pw_Si
74 atoms in group Pw_Si

#write_dump  all custom  start.dump  id  type    x   y   z
# ********************  Print Parameter  *******************

thermo          20000
thermo_style    custom  step    temp    lx      ly      lz      press   vol     pe      ke      etotal

# ********************  Minimize  *******************

dump            1  all  custom  1000  dump.min      id      type    x       y       z
dump_modify     1  sort id

min_style       cg
minimize        1.0e-5  1.0e-8  1000000 1000000
  update every 1 steps, delay 0 steps, check yes
Step Temp Lx Ly Lz Press Volume PotEng KinEng TotEng
0            0    222.69616    25.002862    22.656612    1133981.4    126152.95   -4771.3914            0   -4771.3914
Loop time of 1.04296 on 24 procs for 207 steps with 8200 atoms

Minimization stats:
  Stopping criterion = energy tolerance
  Energy initial, next-to-last, final =
  Force two-norm initial, final = 10852.7 21.1929
  Force max component initial, final = 3548.66 4.56207
  Final line search alpha, max atom move = 0.0201664 0.0920003
  Iterations, force evaluations = 207 294

undump          1

# ********************  Velocity Initialization  *******************

velocity	all  create  310  452346  mom  yes  rot  yes  dist  gaussian

# ********************  Temperature per Atom/Group  ********************

reset_timestep	 0
timestep        0.0005

compute         ALLKe      all     ke/atom
variable        KB         equal   8.617333e-5
variable        TEMP       atom    c_ALLKe/1.5/8.617333e-05
fix             Tem     all     ave/atom      100   100   10000   v_TEMP

# ********************  NPT Equilibrium Processing  ********************

fix             NPT	all	npt     temp     310      310    0.1	iso	1      1    1

dump            1       all     custom  100000  npt.dump        id      type    x   y   z   f_Tem
dump_modify     1       sort    id

dump		2	C1_1L	custom	100000	C1_1L_npt.dump	id	type	x	y	z	f_Tem
dump_modify	2	sort	id

dump		3	C1_2L	custom	100000	C1_2L_npt.dump	id	type	x	y	z	f_Tem
dump_modify	3	sort	id

dump		4	Si_1L	custom	100000	Si_1L_npt.dump	id	type	x	y	z	f_Tem
dump_modify	4	sort	id

dump		5	Si_2L	custom	100000	Si_2L_npt.dump	id	type	x	y	z	f_Tem
dump_modify	5	sort	id

dump		6	Pw_C1	custom	100000	Pw_C1_npt.dump	id	type	x	y	z	f_Tem
dump_modify	6	sort	id

dump		7	Pw_Si	custom	100000	Pw_Si_npt.dump	id	type	x	y	z	f_Tem
dump_modify	7	sort	id

thermo_style    custom  step    temp   lx   ly   lz	press  	vol	pe  ke  etotal

restart         1000000   npt.restart

run             1000000
  update every 1 steps, delay 10 steps, check yes
Step Temp Lx Ly Lz Press Volume PotEng KinEng TotEng
0          310    222.69616    25.002862    22.656612     15639.71    126152.95   -27801.855    328.53922   -27473.316
Averages over the last 26 of 51 rows, steps 500000 to 1000000:
Temp Lx Ly Lz Press Volume PotEng KinEng TotEng
310.502 221.4 24.8573 22.5247 -14.8806 123963 -28749.8 329.071 -28420.7
Loop time of 2933.47 on 24 procs for 1000000 steps with 8200 atoms

undump          1
undump          2
undump          3
undump          4
undump          5
undump          6
undump          7

unfix           NPT

write_restart   npt.restart                 #binary file
  update every 1 steps, delay 10 steps, check yes

write_data      npt.data    nocoeff         #text file
  update every 1 steps, delay 10 steps, check yes

# ********************  NVT Equilibrium Processing  ********************

fix             NVT     all	nvt     temp     310      310    0.1

dump            1       all     custom  100000  nvt.dump       id      type    x   y   z   f_Tem
dump_modify     1       sort    id

dump		2	C1_1L	custom	100000	C1_1L_nvt.dump	id	type	x	y	z	f_Tem
dump_modify	2	sort	id

dump		3	C1_2L	custom	100000	C1_2L_nvt.dump	id	type	x	y	z	f_Tem
dump_modify	3	sort	id

dump		4	Si_1L	custom	100000	Si_1L_nvt.dump	id	type	x	y	z	f_Tem
dump_modify	4	sort	id

dump		5	Si_2L	custom	100000	Si_2L_nvt.dump	id	type	x	y	z	f_Tem
dump_modify	5	sort	id

dump		6	Pw_C1	custom	100000	Pw_C1_nvt.dump	id	type	x	y	z	f_Tem
dump_modify	6	sort	id

dump		7	Pw_Si	custom	100000	Pw_Si_nvt.dump	id	type	x	y	z	f_Tem
dump_modify	7	sort	id

run	1000000
  update every 1 steps, delay 10 steps, check yes
Step Temp Lx Ly Lz Press Volume PotEng KinEng TotEng
1000000    312.68753    221.40181     24.85754    22.524928    1147.1732    123966.04   -28751.206    331.38747   -28419.819
Averages over the last 26 of 51 rows, steps 1500000 to 2000000:
Temp Lx Ly Lz Press Volume PotEng KinEng TotEng
309.585 221.402 24.8575 22.5249 -143.229 123966 -28754.2 328.1 -28426.1
Loop time of 2901.42 on 24 procs for 1000000 steps with 8200 atoms

undump          1
undump          2
undump          3
undump          4
undump          5
undump          6
undump          7

unfix           NVT

write_restart   nvt.restart                 #binary file
  update every 1 steps, delay 10 steps, check yes

write_data      nvt.data    nocoeff         #text file
  update every 1 steps, delay 10 steps, check yes

# ********************  RNEMD  ********************

#fix	nve	all	nve
#
#compute	BLK	all	chunk/atom	bin/1d	x	lower	0.05	units	reduced
#
#fix	Tline	all	ave/chunk	100	100	10000	BLK	v_TEMP	file	temp_20.txt
#
#fix	swap	all	thermal/conductivity	500	x	20
#
#variable	tdiff	equal	f_Tline[11][3]-f_Tline[1][3]
#
#dump            5       all     custom   100000   all.dump  id   type   x   y   z   f_Tem
#dump_modify     5       sort    id
#
#thermo_style    custom  step    temp	etotal	f_Tline[11][3]	f_Tline[1][3]	f_swap	v_tdiff
#thermo          20000
#
#restart         1000000  2equil.restart
#
#run             2000000
#
#undump	5
#
## ********************  2nd RNEMD  ********************
#
#fix	swap	all	thermal/conductivity	500	x	20
#
#dump            6       all     custom   100000   RNEMD.dump  id   type   x   y   z   f_Tem
#dump_modify     6       sort    id
#
#restart		1000000	RNEMD.restart
#
#run	4000000
#
#undump	6
#
#write_restart   RNEMDfinal.restart
#
#write_data      RNEMDfinal.data  nocoeff

# ********************  NEMD Settings  *******************

variable	LB1	equal	xlo+21
variable	LB2	equal	xlo+27
variable	RB1	equal	(xhi/2)+21
variable	RB2	equal	(xhi/2)+27

region	source	block	20.7592459093822	26.7592459093822	INF	INF	INF	INF	units	box
region	sink	block	131.580525686312	137.580525686312	INF	INF	INF	INF	units	box

group	source	region	source
306 atoms in group source
group	sink	region	sink
307 atoms in group sink

# ********************  NEMD  *******************

compute	Thot	source	temp/region	source
compute	Tcold	sink	temp/region	sink

fix	1	all	nve

compute	chunk	all	chunk/atom	bin/1d	x	lower	0.01	units	reduced
fix	chunk	all	ave/chunk	100	10000	1000000	chunk   v_TEMP	file	temp_100.txt

compute	chunk2	all	chunk/atom	bin/1d	x	lower	0.02	units	reduced
fix	chunk2	all	ave/chunk	100	10000	1000000	chunk2   v_TEMP	file	temp_50.txt

variable	tdiff	equal	c_Thot-c_Tcold

fix	2	source	langevin	350	350	0.1		354579	tally	yes
fix	3	sink	langevin	270	270	0.1		712359	tally	yes

thermo_style	custom   step   temp	c_Thot	c_Tcold	f_2  f_3   v_tdiff

dump	1	all	custom	100000	nemd.dump	id	type	x	y	z	f_Tem
dump_modify	1	sort	id

run	2000000
  update every 1 steps, delay 10 steps, check yes
Step Temp c_Thot c_Tcold f_2 f_3 v_tdiff
2000000    305.37082    323.26036     325.5019 -1.8358088e-18 -6.5350374e-19   -2.2415408
Averages over the last 51 of 101 rows, steps 3000000 to 4000000:
Temp c_Thot c_Tcold f_2 f_3 v_tdiff
309.085 349.614 272.939 -237.823 255.429 76.6748
Loop time of 5823.43 on 24 procs for 2000000 steps with 8200 atoms

# ********************  Collect Velocities  *******************

#variable           dn     equal  10

#dump_modify        vels_C1_1L	format	line	"%d   %d   %0.8g   %0.8g   %0.8g   %0.8g   %0.8g   %0.8g"
#dump_modify        vels_C1_1L	sort	id

#dump_modify        vels_C1_2L   format      line      "%d   %d   %0.8g   %0.8g   %0.8g   %0.8g   %0.8g   %0.8g"
#dump_modify        vels_C1_2L   sort        id

#dump_modify        vels_Si_1L	format	line	"%d   %d   %0.8g   %0.8g   %0.8g   %0.8g   %0.8g   %0.8g"
#dump_modify        vels_Si_1L	sort	id

#dump_modify        vels_Si_2L   format      line      "%d   %d   %0.8g   %0.8g   %0.8g   %0.8g   %0.8g   %0.8g"
#dump_modify        vels_Si_2L   sort        id

#dump_modify        vels_Pw_C1   format      line      "%d   %d   %0.8g   %0.8g   %0.8g   %0.8g   %0.8g   %0.8g"
#dump_modify        vels_Pw_C1   sort        id

#dump_modify        vels_Pw_Si	format	line	"%d   %d   %0.8g   %0.8g   %0.8g   %0.8g   %0.8g   %0.8g"
#dump_modify        vels_Pw_Si	sort	id

#run                500000

#undump		vels_C1_1L
#undump		vels_C1_2L
#undump		vels_Si_1L
#undump		vels_Si_2L
#undump		vels_Pw_C1
#undump		vels_Pw_Si

# **********************  2nd NEMD *********************

fix	2	source	langevin	350	350	0.1		354579	tally	yes
fix	3	sink	langevin	270	270	0.1		712359	tally	yes

fix	4	source	ave/time   10   100   1000    f_2     file    hot.txt
fix	5	sink	ave/time   10   100   1000    f_3    file    cold.txt

restart		1000000	NEMD2.restart

run	4000000
  update every 1 steps, delay 10 steps, check yes
Step Temp c_Thot c_Tcold f_2 f_3 v_tdiff
4000000    311.41549    333.24567     270.1595 -5.2351466e-18 1.5934233e-18    63.086176
Averages over the last 101 of 201 rows, steps 6000000 to 8000000:
Temp c_Thot c_Tcold f_2 f_3 v_tdiff
309.455 115.217 89.9031 -445.366 488.328 25.3139
Loop time of 11607.1 on 24 procs for 4000000 steps with 8200 atoms

write_restart	NEMD2.restart
  update every 1 steps, delay 10 steps, check yes
write_data	NEMD2.data
  update every 1 steps, delay 10 steps, check yes
